/*--------------------------------*- C++ -*----------------------------------*\
| =========                 |                                                 |
| \\      /  C hin's        | Made with: Chin's BlockMeshAuto                 |
|  \\    /   H andy         |                                                 |
|   \\  /    I nterface &   | Project:  {project_name}  |
|    \\/     N avigation    |                                                 |
\*---------------------------------------------------------------------------*/
FoamFile
{
    version     2.0;
    format      ascii;
    class       dictionary;
    object      blockMeshDict;
}
// * * * * * * * * * * * * * * * * * * * * * * * * * * * * * * * * * * * * * //

scale   1.0;

vertices
(
    ( -1.000000 1.000000 0.000000 )  // point 0
    ( 1.000000 1.000000 0.000000 )  // point 1
    ( 1.000000 -1.000000 0.000000 )  // point 2
    ( -1.000000 -1.000000 0.000000 )  // point 3
    ( -4.000000 -3.000000 0.000000 )  // point 4
    ( 4.000000 -3.000000 0.000000 )  // point 5
    ( -4.000000 4.000000 0.000000 )  // point 6
    ( -1.000000 4.000000 0.000000 )  // point 7
    ( -1.000000 -3.000000 0.000000 )  // point 8
    ( 1.000000 -3.000000 0.000000 )  // point 9
    ( 4.000000 -1.000000 0.000000 )  // point 10
    ( 4.000000 1.000000 0.000000 )  // point 11
    ( -4.000000 1.000000 0.000000 )  // point 12
    ( -4.000000 -1.000000 0.000000 )  // point 13
    ( 1.000000 4.000000 0.000000 )  // point 14
    ( 4.000000 4.000000 0.000000 )  // point 15
    ( -1.000000 1.000000 1.000000 )  // point 16
    ( 1.000000 1.000000 1.000000 )  // point 17
    ( 1.000000 -1.000000 1.000000 )  // point 18
    ( -1.000000 -1.000000 1.000000 )  // point 19
    ( -4.000000 -3.000000 1.000000 )  // point 20
    ( 4.000000 -3.000000 1.000000 )  // point 21
    ( -1.000000 -3.000000 1.000000 )  // point 22
    ( 1.000000 -3.000000 1.000000 )  // point 23
    ( 4.000000 -1.000000 1.000000 )  // point 24
    ( 4.000000 1.000000 1.000000 )  // point 25
    ( -4.000000 1.000000 1.000000 )  // point 26
    ( -4.000000 -1.000000 1.000000 )  // point 27
    ( -4.000000 4.000000 1.000000 )  // point 28
    ( -1.000000 4.000000 1.000000 )  // point 29
    ( 1.000000 4.000000 1.000000 )  // point 30
    ( 4.000000 4.000000 1.000000 )  // point 31
);

blocks
(
    hex (4 8 3 13 20 22 19 27)        (12 8 1)        simpleGrading (1.0 1.0 1.0)        // Block 0
    hex (8 9 2 3 22 23 18 19)        (8 8 1)        simpleGrading (1.0 1.0 1.0)        // Block 1
    hex (9 5 10 2 23 21 24 18)        (12 8 1)        simpleGrading (1.0 1.0 1.0)        // Block 2
    hex (2 10 11 1 18 24 25 17)        (12 8 1)        simpleGrading (1.0 1.0 1.0)        // Block 3
    hex (13 3 0 12 27 19 16 26)        (12 8 1)        simpleGrading (1.0 1.0 1.0)        // Block 4
    hex (12 0 7 6 26 16 29 28)        (12 12 1)        simpleGrading (1.0 1.0 1.0)        // Block 5
    hex (0 1 14 7 16 17 30 29)        (8 12 1)        simpleGrading (1.0 1.0 1.0)        // Block 6
    hex (1 11 15 14 17 25 31 30)        (12 12 1)        simpleGrading (1.0 1.0 1.0)        // Block 7
);

edges
(
);

boundary
(
    frontAndBack
    {
        type empty;
        faces
        (
            (4 13 3 8)
            (20 22 19 27)
            (8 3 2 9)
            (22 23 18 19)
            (9 2 10 5)
            (23 21 24 18)
            (2 1 11 10)
            (18 24 25 17)
            (13 12 0 3)
            (27 19 16 26)
            (12 6 7 0)
            (26 16 29 28)
            (0 7 14 1)
            (16 17 30 29)
            (1 14 15 11)
            (17 25 31 30)
        );
    }
    overset
    {
        type empty;
        faces
        (
            (6 28 29 7)
            (4 8 22 20)
            (12 26 28 6)
            (4 20 27 13)
            (7 29 30 14)
            (8 9 23 22)
            (14 30 31 15)
            (9 5 21 23)
            (11 15 31 25)
            (5 10 24 21)
            (10 11 25 24)
            (13 27 26 12)
        );
    }
    movingObstacle
    {
        type wall;
        faces
        (
            (3 19 18 2)
            (3 0 16 19)
            (0 1 17 16)
            (2 18 17 1)
        );
    }
);

mergePatchPairs
(
);

// ************************************************************************* //