/*--------------------------------*- C++ -*----------------------------------*\
| =========                 |                                                 |
| \\      /  F ield         | OpenFOAM: The Open Source CFD Toolbox           |
|  \\    /   O peration     | Version:  v2012                                 |
|   \\  /    A nd           | Website:  www.openfoam.com                      |
|    \\/     M anipulation  |                                                 |
\*---------------------------------------------------------------------------*/
FoamFile
{
    version     2.0;
    format      ascii;
    class       dictionary;
    object      dynamicMeshDict;
}
// * * * * * * * * * * * * * * * * * * * * * * * * * * * * * * * * * * * * * //

dynamicFvMesh       dynamicOversetFvMesh;

dynamicOversetFvMeshCoeffs
{
}

solver          multiSolidBodyMotionSolver;

multiSolidBodyMotionSolverCoeffs
{
    region1
    {
        //solidBodyMotionFunction linearMotion;
        //linearMotionCoeffs
        //{
        //    velocity      (1 0.0 0.0);
        //}
        solidBodyMotionFunction oscillatingLinearMotion;
        oscillatingLinearMotionCoeffs
        {
            amplitude       (3 0 0);
            omega           30;
        }
    }
}

// ************************************************************************* //
